	40
SCF DONE	 -1044.183575
Bi	    8.737549	    6.728724	    3.131504
Bi	    6.130587	    1.523449	    0.821125
O	    5.806101	    2.954564	    5.611379
O	    8.499158	    4.698578	    2.340837
O	    6.210288	    2.797312	    2.810925
Bi	    5.719690	    1.051410	    4.344906
Bi	    9.943673	    0.926650	    4.435031
O	    3.528714	    4.575245	    1.384641
O	   10.184809	    3.119137	    4.759723
O	    7.853616	    1.059472	    4.943137
Bi	   -0.121845	    1.936969	    2.559323
Bi	   10.831190	    4.022733	    2.817374
O	    4.349042	    5.476036	    3.946827
O	   10.997227	   -0.153647	    2.878850
O	    9.361754	    2.189618	    2.576995
Bi	    1.922343	    1.614759	    5.272476
Bi	   10.289721	    0.761875	    1.059766
O	    6.594190	    7.134612	    2.642084
O	    3.943247	    1.415894	    0.394198
O	    2.493135	    3.739268	    5.503126
Bi	    8.675618	    3.373800	    0.583585
Bi	    2.330309	    2.886355	    0.583368
O	   10.875543	    2.950342	    0.774006
O	    8.311883	    1.201082	    0.120812
O	    5.376903	    0.042889	    2.352131
Bi	    4.465765	    4.575495	    6.122999
Bi	    7.844556	    3.422880	    4.397873
O	    7.476288	    5.764947	    4.735021
O	    1.192215	    0.917331	    1.134861
O	    2.187579	    2.227248	    3.046107
Bi	    5.688470	    7.122743	    4.663032
Bi	    5.703600	    4.920119	    1.968986
O	    0.674543	    3.880515	    1.875225
O	    6.565544	    3.725101	    0.229051
O	    3.538579	    0.352906	    4.513257
Bi	    3.167154	    0.258854	    2.191702
Bi	    2.393385	    4.517133	    3.309238
O	   -0.113838	    1.316541	    4.608586
O	    4.765478	    6.676905	    6.541760
O	   10.802979	    6.204495	    2.895632

Force
gnorm: 0.000049
Bi	     -7.322708e-04	     -6.446670e-05	      7.539533e-04	    3.0000
Bi	     -6.114236e-04	      2.532794e-04	     -1.008827e-03	    3.0000
O	     -1.270803e-05	     -4.936505e-04	     -7.610659e-04	   -2.0000
O	      3.514061e-04	     -1.623939e-04	      2.250168e-04	   -2.0000
O	      1.710577e-04	     -1.990475e-04	     -9.013203e-04	   -2.0000
Bi	      1.522641e-04	     -5.037024e-04	     -1.090600e-03	    3.0000
Bi	     -2.397154e-05	      1.370336e-04	      9.789089e-04	    3.0000
O	     -3.296743e-04	     -7.411187e-05	     -1.404132e-04	   -2.0000
O	     -6.244888e-05	     -6.215329e-05	      5.700239e-04	   -2.0000
O	      3.030593e-04	     -6.215735e-04	     -3.296995e-04	   -2.0000
Bi	      1.117206e-04	     -3.822151e-05	      1.118553e-03	    3.0000
Bi	      5.651262e-05	      1.295870e-04	      7.148163e-04	    3.0000
O	     -8.868508e-05	      4.124091e-04	     -6.299790e-04	   -2.0000
O	      1.893130e-04	      1.505333e-06	      5.153219e-04	   -2.0000
O	     -3.156487e-05	      4.031596e-05	      7.357775e-04	   -2.0000
Bi	      1.406198e-03	     -3.214032e-05	      2.184622e-04	    3.0000
Bi	     -3.516919e-04	     -1.173690e-04	      7.448888e-04	    3.0000
O	      1.814337e-04	      4.755236e-04	     -2.529234e-04	   -2.0000
O	     -6.773608e-04	      2.056293e-04	     -6.340661e-04	   -2.0000
O	      1.120145e-03	      1.460199e-04	      1.951762e-05	   -2.0000
Bi	     -3.514781e-04	      2.484155e-07	      5.375611e-04	    3.0000
Bi	     -6.623480e-04	      1.319771e-04	      2.408760e-04	    3.0000
O	     -3.905947e-06	     -1.352070e-04	      7.165630e-04	   -2.0000
O	     -5.587155e-05	      2.016082e-05	      2.235357e-04	   -2.0000
O	     -1.737675e-04	     -7.630546e-05	     -1.208458e-03	   -2.0000
Bi	      1.347544e-03	      2.451950e-05	     -8.481132e-04	    3.0000
Bi	     -1.117973e-04	     -4.253632e-04	     -5.196815e-04	    3.0000
O	     -1.527780e-03	     -3.573067e-04	     -3.475293e-04	   -2.0000
O	     -6.246620e-04	      9.585030e-05	      3.990313e-04	   -2.0000
O	      2.088229e-04	     -1.188903e-05	      3.870784e-05	   -2.0000
Bi	     -2.632592e-04	      9.023783e-04	     -1.419766e-03	    3.0000
Bi	     -1.020535e-04	      1.344751e-04	     -1.828355e-04	    3.0000
O	     -3.530079e-04	      1.125291e-05	      7.488516e-04	   -2.0000
O	      2.728395e-04	      2.210888e-04	     -3.486868e-04	   -2.0000
O	      3.409668e-04	     -5.634664e-04	     -6.806333e-04	   -2.0000
Bi	     -1.872372e-04	     -5.330221e-05	     -4.663163e-04	    3.0000
Bi	      1.305151e-04	     -1.081142e-05	      1.241939e-04	    3.0000
O	      9.020411e-04	      1.182063e-04	      1.123435e-03	   -2.0000
O	     -9.240922e-05	      6.501790e-04	     -3.259463e-04	   -2.0000
O	      1.855374e-04	     -1.091579e-04	      1.348863e-03	   -2.0000
